Circuit: * C:\Users\HP\Documents\LTspiceXVII\IE E&C\Draft ep2.asc


Date: Wed Jan 20 23:24:40 2021
Total elapsed time: 0.015 seconds.

tnom = 27
temp = 27
method = trap
totiter = 0
traniter = 0
tranpoints = 0
accept = 0
rejected = 0
matrix size = 3
fillins = 0
solver = Normal

