Circuit: * C:\Users\HP\Documents\LTspiceXVII\IE E&C\Draft ep3.asc


Date: Thu Jan 21 16:46:16 2021
Total elapsed time: 0.026 seconds.

tnom = 27
temp = 27
method = trap
totiter = 0
traniter = 0
tranpoints = 0
accept = 0
rejected = 0
matrix size = 5
fillins = 0
solver = Normal

