Circuit: * C:\Users\HP\Documents\LTspiceXVII\IE E&C\Draft 1.asc

.OP point found by inspection.

Date: Wed Jan 20 22:39:05 2021
Total elapsed time: 0.050 seconds.

tnom = 27
temp = 27
method = modified trap
totiter = 2114
traniter = 2114
tranpoints = 1058
accept = 1057
rejected = 1
matrix size = 3
fillins = 0
solver = Normal
Matrix Compiler1:       3 opcodes  0.0/[0.0]/0.0
Matrix Compiler2:      15 opcodes  0.1/[0.0]/0.0

