Circuit: * C:\Users\HP\Documents\LTspiceXVII\IE E&C\Draft ep6.asc

WARNING: Less than two connections to node REFERENCE.  This node is used by V1.
.OP point found by inspection.

Date: Thu Jan 21 19:27:28 2021
Total elapsed time: 4.174 seconds.

tnom = 27
temp = 27
method = modified trap
totiter = 2000034
traniter = 2000034
tranpoints = 1000018
accept = 1000018
rejected = 0
matrix size = 2
fillins = 0
solver = Normal
Matrix Compiler1:       1 opcodes  0.0/[0.0]/0.1
Matrix Compiler2: off  [0.0]/0.0/0.1

