Circuit: * C:\Users\HP\Documents\LTspiceXVII\IE E&C\Draft ep7.asc

Direct Newton iteration for .op point succeeded.

Date: Thu Jan 21 23:30:04 2021
Total elapsed time: 0.040 seconds.

tnom = 27
temp = 27
method = modified trap
totiter = 2091
traniter = 2088
tranpoints = 1045
accept = 1045
rejected = 0
matrix size = 5
fillins = 0
solver = Normal
Matrix Compiler1: 114 bytes object code size  0.1/0.1/[0.1]
Matrix Compiler2: off  [0.1]/0.1/0.1

